####################################################################### 
# 
# This file contains crystal structure data downloaded from the 
# Cambridge Structural Database (CSD) hosted by the Cambridge 
# Crystallographic Data Centre (CCDC).
# 
# Full information about CCDC data access policies and citation 
# guidelines are available at http://www.ccdc.cam.ac.uk/access/V1 
# 
# Audit and citation data items may have been added by the CCDC. 
# Please retain this information to preserve the provenance of 
# this file and to allow appropriate attribution of the data. 
# 
#######################################################################
@<TRIPOS>MOLECULE

    16    16     1     0     0
SMALL
NO_CHARGES
****
Generated from the CSD

@<TRIPOS>ATOM
     1 Br1      3.8023   9.4607   2.8615   Br        1 RES1   0.0000
     2 O1       5.3648   4.4807   2.0616   O.2       1 RES1   0.0000
     3 O2       4.0363   3.1548   3.0169   O.2       1 RES1   0.0000
     4 N1       1.2152   8.5793   4.3146   N.pl3     1 RES1   0.0000
     5 N2       4.3948   4.2645   2.7243   N.pl3     1 RES1   0.0000
     6 C1       3.5858   5.3843   3.1660   C.2       1 RES1   0.0000
     7 C2       4.0119   6.6616   2.8864   C.2       1 RES1   0.0000
     8 C3       3.2328   7.7110   3.2700   C.2       1 RES1   0.0000
     9 C4       2.0343   7.5283   3.9489   C.2       1 RES1   0.0000
    10 C5       1.6414   6.2107   4.2351   C.2       1 RES1   0.0000
    11 C6       2.4072   5.1563   3.8532   C.2       1 RES1   0.0000
    12 H1       0.4808   8.4247   4.7344   H         1 RES1   0.0000
    13 H2       1.4401   9.3861   4.1224   H         1 RES1   0.0000
    14 H3       4.8171   6.8064   2.4445   H         1 RES1   0.0000
    15 H4       0.8464   6.0576   4.6924   H         1 RES1   0.0000
    16 H5       2.1416   4.2878   4.0520   H         1 RES1   0.0000
@<TRIPOS>BOND
     1     1     8    1
     2     2     5    2
     3     3     5    2
     4     4     9    1
     5     5     6    1
     6     6     7    2
     7     7     8    1
     8     8     9    2
     9     9    10    1
    10    10    11    2
    11    11     6    1
    12    12     4    1
    13    13     4    1
    14    14     7    1
    15    15    10    1
    16    16    11    1
@<TRIPOS>SUBSTRUCTURE
     1 RES1        1 GROUP             0 ****  ****    0  
@<TRIPOS>CRYSIN
   11.0980   16.7630    3.9540   90.0000   90.0000   90.0000    33     1
