####################################################################### 
# 
# This file contains crystal structure data downloaded from the 
# Cambridge Structural Database (CSD) hosted by the Cambridge 
# Crystallographic Data Centre (CCDC).
# 
# Full information about CCDC data access policies and citation 
# guidelines are available at http://www.ccdc.cam.ac.uk/access/V1 
# 
# Audit and citation data items may have been added by the CCDC. 
# Please retain this information to preserve the provenance of 
# this file and to allow appropriate attribution of the data. 
# 
#######################################################################
@<TRIPOS>MOLECULE

    68    34    36     0     0
SMALL
NO_CHARGES
****
Generated from the CSD

@<TRIPOS>ATOM
     1 C1      -0.7577   8.8271   1.4642   C.2       1 RES1   0.0000
     2 C2       0.4459   8.4367   2.1063   C.2       1 RES1   0.0000
     3 C3       0.7683   7.0995   2.2742   C.2       1 RES1   0.0000
     4 C4      -0.0703   6.1429   1.7690   C.2       1 RES1   0.0000
     5 C5      -1.2610   6.4899   1.1116   C.2       1 RES1   0.0000
     6 C6      -1.5933   7.8081   0.9557   C.2       1 RES1   0.0000
     7 N1      -1.1026  10.1226   1.3536   N.pl3     1 RES1   0.0000
     8 C7       1.3344   9.4592   2.5724   C.1       1 RES1   0.0000
     9 N2       2.0127  10.3087   2.9291   N.1       1 RES1   0.0000
    10 N3       0.2540   4.7494   1.9506   N.pl3     1 RES1   0.0000
    11 O1      -0.5265   3.8995   1.4920   O.2       1 RES1   0.0000
    12 O2       1.2890   4.4469   2.5455   O.2       1 RES1   0.0000
    13 H1       1.5610   6.8499   2.7339   H         1 RES1   0.0000
    14 H2      -1.8340   5.8111   0.7751   H         1 RES1   0.0000
    15 H3      -2.3947   8.0412   0.5009   H         1 RES1   0.0000
    16 H4      -0.5737  10.7482   1.6748   H         1 RES1   0.0000
    17 H5      -1.8580  10.3440   0.9600   H         1 RES1   0.0000
    18 C8       4.5610  12.1284   5.0517   C.2       2 RES2   0.0000
    19 C9       5.7823  12.5027   5.6698   C.2       2 RES2   0.0000
    20 C10      6.1291  13.8361   5.8483   C.2       2 RES2   0.0000
    21 C11      5.2531  14.8124   5.4084   C.2       2 RES2   0.0000
    22 C12      4.0316  14.4784   4.8055   C.2       2 RES2   0.0000
    23 C13      3.7008  13.1669   4.6241   C.2       2 RES2   0.0000
    24 N4       4.2225  10.8441   4.8892   N.pl3     2 RES2   0.0000
    25 C14      6.6433  11.4706   6.1537   C.1       2 RES2   0.0000
    26 N5       7.2845  10.6083   6.5538   N.1       2 RES2   0.0000
    27 N6       5.6044  16.2003   5.5902   N.pl3     2 RES2   0.0000
    28 O3       4.8538  17.0549   5.0960   O.2       2 RES2   0.0000
    29 O4       6.6267  16.4855   6.2156   O.2       2 RES2   0.0000
    30 H6       6.9505  14.0721   6.2642   H         2 RES2   0.0000
    31 H7       3.4366  15.1641   4.5249   H         2 RES2   0.0000
    32 H8       2.8786  12.9482   4.2026   H         2 RES2   0.0000
    33 H9       4.7666  10.2075   5.1597   H         2 RES2   0.0000
    34 H10      3.4556  10.6347   4.5115   H         2 RES2   0.0000
    35 C15?    -0.7578   2.3879   1.4665   C.3       3 RES3   0.0000
    36 C16?     0.4237   2.0245   2.1041   C.3       4 RES4   0.0000
    37 C17?     0.7379   0.6807   2.2742   C.3       5 RES5   0.0000
    38 C18?    -0.1238  -0.2996   1.8066   C.3       6 RES6   0.0000
    39 C19?    -1.3077   0.0638   1.1690   C.3       7 RES7   0.0000
    40 C20?    -1.6241   1.4076   0.9989   C.3       8 RES8   0.0000
    41 N7?     -1.0770   3.6714   1.2327   N.3       9 RES9   0.0000
    42 C21?     1.2815   3.0509   2.6071   C.3      10 RES10   0.0000
    43 N8?      1.9817   3.8593   3.0180   N.3      11 RES11   0.0000
    44 N9?      0.2317  -1.6682   2.0758   N.3      12 RES12   0.0000
    45 O5?     -0.2564  -2.6485   1.5019   O.3      13 RES13   0.0000
    46 O6?      1.2347  -1.9678   2.7276   O.3      14 RES14   0.0000
    47 C22?     4.6307   5.6427   4.9805   C.3      15 RES15   0.0000
    48 C23?     5.7931   6.0061   5.6464   C.3      16 RES16   0.0000
    49 C24?     6.0842   7.3498   5.8519   C.3      17 RES17   0.0000
    50 C25?     5.2129   8.3284   5.3914   C.3      18 RES18   0.0000
    51 C26?     4.0510   7.9650   4.7183   C.3      19 RES19   0.0000
    52 C27?     3.7599   6.6212   4.5129   C.3      20 RES20   0.0000
    53 N10?     4.3793   4.3273   4.8671   N.3      21 RES21   0.0000
    54 C28?     6.6702   4.9407   6.0219   C.3      22 RES22   0.0000
    55 N11?     7.4194   4.1411   6.3549   N.3      23 RES23   0.0000
    56 N12?     5.5395   9.7289   5.4906   N.3      24 RES24   0.0000
    57 O7?      4.7321  10.5745   5.0867   O.3      25 RES25   0.0000
    58 O8?      6.5611  10.0479   6.1069   O.3      26 RES26   0.0000
    59 H11?     1.5464   0.4326   2.7070   H        27 RES27   0.0000
    60 H12?    -1.9016  -0.6063   0.8466   H        28 RES28   0.0000
    61 H13?    -2.4314   1.6557   0.5661   H        29 RES29   0.0000
    62 H14?    -0.5246   4.3131   1.4849   H        30 RES30   0.0000
    63 H15?    -1.8283   3.8717   0.8296   H        31 RES31   0.0000
    64 H16?     6.8792   7.5980   6.3124   H        32 RES32   0.0000
    65 H17?     3.4552   8.6351   4.4052   H        33 RES33   0.0000
    66 H18?     2.9656   6.3730   4.0574   H        34 RES34   0.0000
    67 H19?     4.9363   3.7423   5.2150   H        35 RES35   0.0000
    68 H20?     3.6535   4.0525   4.4534   H        36 RES36   0.0000
@<TRIPOS>BOND
     1     1     2    2
     2     2     3    1
     3     3     4    2
     4     4     5    1
     5     5     6    2
     6     6     1    1
     7     7     1    1
     8     8     2    1
     9     9     8    3
    10    10     4    1
    11    11    10    2
    12    12    10    2
    13    13     3    1
    14    14     5    1
    15    15     6    1
    16    16     7    1
    17    17     7    1
    18    18    19    2
    19    19    20    1
    20    20    21    2
    21    21    22    1
    22    22    23    2
    23    23    18    1
    24    24    18    1
    25    25    19    1
    26    26    25    3
    27    27    21    1
    28    28    27    2
    29    29    27    2
    30    30    20    1
    31    31    22    1
    32    32    23    1
    33    33    24    1
    34    34    24    1
@<TRIPOS>SUBSTRUCTURE
     1 RES1        1 GROUP             0 ****  ****    0  
     2 RES2       18 GROUP             0 ****  ****    0  
     3 RES3       35 GROUP             0 ****  ****    0  
     4 RES4       36 GROUP             0 ****  ****    0  
     5 RES5       37 GROUP             0 ****  ****    0  
     6 RES6       38 GROUP             0 ****  ****    0  
     7 RES7       39 GROUP             0 ****  ****    0  
     8 RES8       40 GROUP             0 ****  ****    0  
     9 RES9       41 GROUP             0 ****  ****    0  
    10 RES10      42 GROUP             0 ****  ****    0  
    11 RES11      43 GROUP             0 ****  ****    0  
    12 RES12      44 GROUP             0 ****  ****    0  
    13 RES13      45 GROUP             0 ****  ****    0  
    14 RES14      46 GROUP             0 ****  ****    0  
    15 RES15      47 GROUP             0 ****  ****    0  
    16 RES16      48 GROUP             0 ****  ****    0  
    17 RES17      49 GROUP             0 ****  ****    0  
    18 RES18      50 GROUP             0 ****  ****    0  
    19 RES19      51 GROUP             0 ****  ****    0  
    20 RES20      52 GROUP             0 ****  ****    0  
    21 RES21      53 GROUP             0 ****  ****    0  
    22 RES22      54 GROUP             0 ****  ****    0  
    23 RES23      55 GROUP             0 ****  ****    0  
    24 RES24      56 GROUP             0 ****  ****    0  
    25 RES25      57 GROUP             0 ****  ****    0  
    26 RES26      58 GROUP             0 ****  ****    0  
    27 RES27      59 GROUP             0 ****  ****    0  
    28 RES28      60 GROUP             0 ****  ****    0  
    29 RES29      61 GROUP             0 ****  ****    0  
    30 RES30      62 GROUP             0 ****  ****    0  
    31 RES31      63 GROUP             0 ****  ****    0  
    32 RES32      64 GROUP             0 ****  ****    0  
    33 RES33      65 GROUP             0 ****  ****    0  
    34 RES34      66 GROUP             0 ****  ****    0  
    35 RES35      67 GROUP             0 ****  ****    0  
    36 RES36      68 GROUP             0 ****  ****    0  
@<TRIPOS>CRYSIN
   11.2316   17.7275    7.1078   90.0000   94.6300   90.0000    14     1
