####################################################################### 
# 
# This file contains crystal structure data downloaded from the 
# Cambridge Structural Database (CSD) hosted by the Cambridge 
# Crystallographic Data Centre (CCDC).
# 
# Full information about CCDC data access policies and citation 
# guidelines are available at http://www.ccdc.cam.ac.uk/access/V1 
# 
# Audit and citation data items may have been added by the CCDC. 
# Please retain this information to preserve the provenance of 
# this file and to allow appropriate attribution of the data. 
# 
#######################################################################
@<TRIPOS>MOLECULE

    20    20     1     0     0
SMALL
NO_CHARGES
****
Generated from the CSD

@<TRIPOS>ATOM
     1 C1       5.3247   2.2575   7.7132   C.2       1 RES1   0.0000
     2 C2       4.8962   1.7420   6.4773   C.2       1 RES1   0.0000
     3 C3       4.5290   2.5776   5.4635   C.2       1 RES1   0.0000
     4 C4       4.5851   3.9499   5.6683   C.2       1 RES1   0.0000
     5 C5       4.9855   4.4850   6.8732   C.2       1 RES1   0.0000
     6 C6       5.3484   3.6388   7.8906   C.2       1 RES1   0.0000
     7 N1       5.7098   1.4203   8.7011   N.pl3     1 RES1   0.0000
     8 O1       4.9023   0.3803   6.4167   O.3       1 RES1   0.0000
     9 C7       4.4633  -0.1999   5.2018   C.3       1 RES1   0.0000
    10 N2       4.2054   4.8141   4.5953   N.pl3     1 RES1   0.0000
    11 O2       3.7889   4.3226   3.5484   O.2       1 RES1   0.0000
    12 O3       4.2830   6.0360   4.7468   O.2       1 RES1   0.0000
    13 H1       5.6287   4.0041   8.7323   H         1 RES1   0.0000
    14 H2       4.2538   2.2198   4.6158   H         1 RES1   0.0000
    15 H3       5.6894   0.5304   8.5700   H         1 RES1   0.0000
    16 H4       5.9759   1.7526   9.4939   H         1 RES1   0.0000
    17 H5       4.9979   5.4376   6.9956   H         1 RES1   0.0000
    18 H6       4.5009  -1.1581   5.2563   H         1 RES1   0.0000
    19 H7       3.5676   0.0729   4.9888   H         1 RES1   0.0000
    20 H8       5.0621   0.1051   4.5167   H         1 RES1   0.0000
@<TRIPOS>BOND
     1     1     2    1
     2     2     3    2
     3     3     4    1
     4     4     5    2
     5     5     6    1
     6     6     1    2
     7     7     1    1
     8     8     2    1
     9     9     8    1
    10    10     4    1
    11    11    10    2
    12    12    10    2
    13    13     6    1
    14    14     3    1
    15    15     7    1
    16    16     7    1
    17    17     5    1
    18    18     9    1
    19    19     9    1
    20    20     9    1
@<TRIPOS>SUBSTRUCTURE
     1 RES1        1 GROUP             0 ****  ****    0  
@<TRIPOS>CRYSIN
    7.0860   15.0300    7.2140   90.0000   91.7500   90.0000    14     2
