####################################################################### 
# 
# This file contains crystal structure data downloaded from the 
# Cambridge Structural Database (CSD) hosted by the Cambridge 
# Crystallographic Data Centre (CCDC).
# 
# Full information about CCDC data access policies and citation 
# guidelines are available at http://www.ccdc.cam.ac.uk/access/V1 
# 
# Audit and citation data items may have been added by the CCDC. 
# Please retain this information to preserve the provenance of 
# this file and to allow appropriate attribution of the data. 
# 
#######################################################################
@<TRIPOS>MOLECULE

    16    16     1     0     0
SMALL
NO_CHARGES
****
Generated from the CSD

@<TRIPOS>ATOM
     1 O1       5.8731   5.5065   5.4142   O.2       1 RES1   0.0000
     2 O2       7.1162   3.7496   5.1995   O.2       1 RES1   0.0000
     3 N1       3.3371   1.9095   9.8588   N.pl3     1 RES1   0.0000
     4 H1       2.7029   2.3748  10.2628   H         1 RES1   0.0000
     5 H2       3.5112   1.0850  10.0824   H         1 RES1   0.0000
     6 N2       6.1870   4.3538   5.7422   N.pl3     1 RES1   0.0000
     7 C1       4.0256   2.4849   8.8445   C.2       1 RES1   0.0000
     8 C2       5.1053   1.8248   8.2212   C.2       1 RES1   0.0000
     9 H3       5.3469   0.9517   8.5065   H         1 RES1   0.0000
    10 C3       5.8128   2.4261   7.2071   C.2       1 RES1   0.0000
    11 H4       6.5413   1.9758   6.7951   H         1 RES1   0.0000
    12 C4       5.4458   3.7084   6.7912   C.2       1 RES1   0.0000
    13 C5       4.3698   4.3783   7.3743   C.2       1 RES1   0.0000
    14 H5       4.1248   5.2445   7.0712   H         1 RES1   0.0000
    15 C6       3.6675   3.7750   8.3905   C.2       1 RES1   0.0000
    16 H6       2.9351   4.2289   8.7912   H         1 RES1   0.0000
@<TRIPOS>BOND
     1     1     6    2
     2     2     6    2
     3     3     4    1
     4     5     3    1
     5     6    12    1
     6     7     3    1
     7     8     7    2
     8     9     8    1
     9    10     8    1
    10    11    10    1
    11    12    10    2
    12    13    12    1
    13    14    13    1
    14    15     7    1
    15    16    15    1
    16    13    15    2
@<TRIPOS>SUBSTRUCTURE
     1 RES1        1 GROUP             0 ****  ****    0  
@<TRIPOS>CRYSIN
    8.4895    6.0275   12.1261   90.0000   92.7240   90.0000   231     1
