####################################################################### 
# 
# This file contains crystal structure data downloaded from the 
# Cambridge Structural Database (CSD) hosted by the Cambridge 
# Crystallographic Data Centre (CCDC).
# 
# Full information about CCDC data access policies and citation 
# guidelines are available at http://www.ccdc.cam.ac.uk/access/V1 
# 
# Audit and citation data items may have been added by the CCDC. 
# Please retain this information to preserve the provenance of 
# this file and to allow appropriate attribution of the data. 
# 
#######################################################################
@<TRIPOS>MOLECULE

    11    11     1     0     0
SMALL
NO_CHARGES
****
Generated from the CSD

@<TRIPOS>ATOM
     1 Cl1      3.8205   9.4596   1.4667   Cl        1 RES1   0.0000
     2 C1       2.0801   7.6398   0.4485   C.2       1 RES1   0.0000
     3 C2       3.3154   7.8201   1.0689   C.2       1 RES1   0.0000
     4 C3       4.1355   6.7636   1.4679   C.2       1 RES1   0.0000
     5 C4       3.7069   5.4712   1.1386   C.2       1 RES1   0.0000
     6 C5       2.4941   5.2151   0.5182   C.2       1 RES1   0.0000
     7 C6       1.7021   6.3019   0.1602   C.2       1 RES1   0.0000
     8 N1       1.2386   8.6727   0.0844   N.pl3     1 RES1   0.0000
     9 N2       4.5214   4.3355   1.5828   N.pl3     1 RES1   0.0000
    10 O1       5.5541   4.5731   2.2163   O.2       1 RES1   0.0000
    11 O2       4.1704   3.1931   1.2721   O.2       1 RES1   0.0000
@<TRIPOS>BOND
     1     1     3    1
     2     2     3    2
     3     3     4    1
     4     4     5    2
     5     5     6    1
     6     6     7    2
     7     7     2    1
     8     8     2    1
     9     9     5    1
    10    10     9    2
    11    11     9    2
@<TRIPOS>SUBSTRUCTURE
     1 RES1        1 GROUP             0 ****  ****    0  
@<TRIPOS>CRYSIN
   11.2500   16.8500    3.8700   90.0000   90.0000   90.0000    33     1
