####################################################################### 
# 
# This file contains crystal structure data downloaded from the 
# Cambridge Structural Database (CSD) hosted by the Cambridge 
# Crystallographic Data Centre (CCDC).
# 
# Full information about CCDC data access policies and citation 
# guidelines are available at http://www.ccdc.cam.ac.uk/access/V1 
# 
# Audit and citation data items may have been added by the CCDC. 
# Please retain this information to preserve the provenance of 
# this file and to allow appropriate attribution of the data. 
# 
#######################################################################
@<TRIPOS>MOLECULE

    18    18     1     0     0
SMALL
NO_CHARGES
****
Generated from the CSD

@<TRIPOS>ATOM
     1 N1       3.7674   8.2452   1.8039   N.pl3     1 RES1   0.0000
     2 N2       2.6799   5.5954   1.1860   N.pl3     1 RES1   0.0000
     3 N3       0.3559   7.5686  -2.5733   N.pl3     1 RES1   0.0000
     4 C1       2.9182   8.0278   0.7750   C.2       1 RES1   0.0000
     5 C2       2.3812   6.7801   0.4209   C.2       1 RES1   0.0000
     6 C3       1.5522   6.6206  -0.6769   C.2       1 RES1   0.0000
     7 C4       1.2322   7.7332  -1.3915   C.2       1 RES1   0.0000
     8 C5       1.7065   8.9887  -1.0573   C.2       1 RES1   0.0000
     9 C6       2.5422   9.1456   0.0114   C.2       1 RES1   0.0000
    10 O1       3.4683   5.6649   2.1538   O.2       1 RES1   0.0000
    11 O2       2.1349   4.5417   0.8817   O.2       1 RES1   0.0000
    12 O3       0.1989   8.5565  -3.2602   O.2       1 RES1   0.0000
    13 O4      -0.1409   6.4714  -2.7624   O.2       1 RES1   0.0000
    14 H1       1.2200   5.7009  -0.9173   H         1 RES1   0.0000
    15 H2       1.4721   9.7116  -1.4648   H         1 RES1   0.0000
    16 H3       2.9026  10.2415   0.3058   H         1 RES1   0.0000
    17 H4       3.8727   7.4991   2.2042   H         1 RES1   0.0000
    18 H5       4.2072   9.2099   2.0620   H         1 RES1   0.0000
@<TRIPOS>BOND
     1     1     4    1
     2     2     5    1
     3     3     7    1
     4     4     5    2
     5     5     6    1
     6     6     7    2
     7     7     8    1
     8     8     9    2
     9     9     4    1
    10    10     2    2
    11    11     2    2
    12    12     3    2
    13    13     3    2
    14    14     6    1
    15    15     8    1
    16    16     9    1
    17    17     1    1
    18    18     1    1
@<TRIPOS>SUBSTRUCTURE
     1 RES1        1 GROUP             0 ****  ****    0  
@<TRIPOS>CRYSIN
    8.1710   12.8630    7.5130   90.0000  108.8400   90.0000    14     1
